Version 4
SHEET 1 880 680
WIRE 192 96 96 96
WIRE 432 112 416 112
WIRE 96 128 96 96
WIRE 192 160 192 96
WIRE 256 160 192 160
WIRE 336 160 336 112
WIRE 336 160 288 160
WIRE 432 176 432 112
WIRE 432 176 288 176
WIRE 464 176 432 176
WIRE 256 192 192 192
WIRE 336 192 288 192
WIRE 96 224 96 208
WIRE 192 224 192 192
WIRE 192 224 96 224
WIRE 96 240 96 224
WIRE 336 256 336 192
WIRE 432 256 432 176
WIRE 432 256 416 256
FLAG 96 240 0
FLAG 464 176 0
SYMBOL inductance_mutuelle 272 176 R0
WINDOW 3 -17 -22 Left 2
WINDOW 0 0 0 Left 2
WINDOW 39 -112 -126 Left 2
SYMATTR Value ""
SYMATTR InstName X1
SYMATTR SpiceLine m2=1-m1
SYMBOL voltage 96 112 R0
WINDOW 123 0 0 Left 2
WINDOW 39 24 124 Left 2
SYMATTR InstName V2
SYMATTR Value SINE(0 1 1Meg)
SYMATTR SpiceLine Rser=0.1
SYMBOL res 320 128 R270
WINDOW 0 32 56 VTop 2
WINDOW 3 0 56 VBottom 2
SYMATTR InstName R1
SYMATTR Value 1Meg
SYMBOL res 320 272 R270
WINDOW 0 32 56 VTop 2
WINDOW 3 0 56 VBottom 2
SYMATTR InstName R2
SYMATTR Value 1Meg
TEXT 62 264 Left 2 !.tran 10u
TEXT 160 24 Left 2 !.step param m1 0 1 0.5
