Version 4
SHEET 1 880 680
WIRE 0 96 -32 96
WIRE -304 128 -448 128
WIRE -112 128 -112 96
WIRE -112 128 -160 128
WIRE -448 144 -448 128
WIRE 0 160 0 96
WIRE 64 160 0 160
WIRE -112 192 -160 192
WIRE -112 240 -112 192
WIRE 0 240 0 160
WIRE 0 240 -32 240
FLAG -448 224 0
FLAG 64 160 0
SYMBOL SpecialFunctions\\modulate2 -304 128 R0
WINDOW 3 16 -20 Left 2
SYMATTR InstName A1
SYMATTR Value mark=100k space=10
SYMBOL voltage -448 128 R0
WINDOW 123 0 0 Left 0
WINDOW 39 0 0 Left 0
SYMATTR InstName V1
SYMATTR Value PWL(0 0 1 1)
SYMBOL res -16 224 R90
WINDOW 0 0 56 VBottom 2
WINDOW 3 32 56 VTop 2
SYMATTR InstName R1
SYMATTR Value 1Meg
SYMBOL res -16 80 R90
WINDOW 0 0 56 VBottom 2
WINDOW 3 32 56 VTop 2
SYMATTR InstName R2
SYMATTR Value 1Meg
TEXT -482 290 Left 2 !.tran 1
