Version 4
SHEET 1 1424 680
WIRE -48 -96 -160 -96
WIRE 48 -96 32 -96
WIRE -160 -48 -160 -96
WIRE -160 48 -160 32
WIRE 48 48 48 -96
WIRE 80 48 48 48
WIRE 96 48 80 48
WIRE 288 48 272 48
WIRE 336 48 288 48
WIRE 432 48 432 -96
WIRE 432 48 336 48
WIRE 352 112 272 112
WIRE -160 144 -160 128
WIRE 80 144 64 144
WIRE -160 256 -160 224
WIRE 64 256 64 144
WIRE 64 256 -160 256
WIRE -160 272 -160 256
FLAG -160 272 0
FLAG 336 -112 0
FLAG 352 112 0
FLAG 288 48 S
FLAG 432 -96 out
IOPIN 432 -96 Out
SYMBOL Optos\\4N25 176 112 R0
SYMATTR InstName U1
SYMBOL voltage 336 -16 R180
WINDOW 0 32 56 VTop 2
WINDOW 3 -32 56 VBottom 2
WINDOW 123 0 0 Left 0
WINDOW 39 0 0 Left 0
SYMATTR InstName V2
SYMATTR Value 5
SYMBOL res 320 -48 R0
SYMATTR InstName R2
SYMATTR Value 10k
SYMBOL voltage -160 128 R0
WINDOW 123 0 0 Left 0
WINDOW 39 0 0 Left 0
SYMATTR InstName V1
SYMATTR Value 1
SYMBOL res 48 -112 R90
WINDOW 0 0 56 VBottom 2
WINDOW 3 32 56 VTop 2
SYMATTR InstName R1
SYMATTR Value 330
SYMBOL voltage -160 32 R0
WINDOW 3 -15 307 Left 2
WINDOW 123 0 0 Left 0
WINDOW 39 0 0 Left 0
SYMATTR Value PWL file="ppg_1.txt"
SYMATTR InstName V3
SYMBOL bv -160 -64 R0
WINDOW 3 -35 -156 VRight 2
SYMATTR Value V=5e-3*white(1e3*time)
SYMATTR InstName B1
TEXT 312 264 Left 2 !.tran 10
